<?xml version="1.0" encoding="UTF-8"?>

<!-- generated on 03/29/20 15:21:33 by Eclipse SUMO netedit Version 1.5.0
<configuration xmlns:xsi="http://www.w3.org/2001/XMLSchema-instance" xsi:noNamespaceSchemaLocation="http://sumo.dlr.de/xsd/netconvertConfiguration.xsd">

    <input>
        <sumo-net-file value="D:\SUMO\spring-demo\spring_street_baseline.net.xml"/>
    </input>

    <output>
        <output-file value="D:\SUMO\spring-demo\spring_street_baseline.net.xml"/>
    </output>

    <processing>
        <geometry.min-radius.fix.railways value="false"/>
        <geometry.max-grade.fix value="false"/>
        <offset.disable-normalization value="true"/>
        <lefthand value="false"/>
    </processing>

    <junctions>
        <no-turnarounds value="true"/>
        <junctions.corner-detail value="5"/>
        <junctions.limit-turn-speed value="5.5"/>
        <rectangular-lane-cut value="false"/>
    </junctions>

    <pedestrian>
        <walkingareas value="false"/>
    </pedestrian>

    <report>
        <aggregate-warnings value="5"/>
    </report>

</configuration>
-->

<net version="1.3" junctionCornerDetail="5" limitTurnSpeed="5.50" xmlns:xsi="http://www.w3.org/2001/XMLSchema-instance" xsi:noNamespaceSchemaLocation="http://sumo.dlr.de/xsd/net_file.xsd">

    <location netOffset="-306566.20,-4595099.47" convBoundary="155.03,388.12,723.74,932.93" origBoundary="-71.317196,41.484260,-71.308486,41.494618" projParameter="+proj=utm +zone=19 +ellps=WGS84 +datum=WGS84 +units=m +no_defs"/>

    <type id="highway.bridleway" priority="1" numLanes="1" speed="2.78" allow="pedestrian" oneway="1" width="2.00"/>
    <type id="highway.bus_guideway" priority="1" numLanes="1" speed="27.78" allow="bus" oneway="1"/>
    <type id="highway.cycleway" priority="1" numLanes="1" speed="8.33" allow="bicycle" oneway="0" width="1.00"/>
    <type id="highway.footway" priority="1" numLanes="1" speed="2.78" allow="pedestrian" oneway="1" width="2.00"/>
    <type id="highway.ford" priority="1" numLanes="1" speed="2.78" allow="army" oneway="0"/>
    <type id="highway.living_street" priority="2" numLanes="1" speed="2.78" disallow="tram rail_urban rail rail_electric ship" oneway="0"/>
    <type id="highway.motorway" priority="14" numLanes="2" speed="39.44" disallow="pedestrian moped bicycle tram rail_urban rail rail_electric ship" oneway="1"/>
    <type id="highway.motorway_link" priority="9" numLanes="1" speed="22.22" disallow="pedestrian moped bicycle tram rail_urban rail rail_electric ship" oneway="1"/>
    <type id="highway.path" priority="1" numLanes="1" speed="2.78" allow="pedestrian bicycle" oneway="1" width="2.00"/>
    <type id="highway.pedestrian" priority="1" numLanes="1" speed="2.78" allow="pedestrian" oneway="1" width="2.00"/>
    <type id="highway.primary" priority="12" numLanes="2" speed="27.78" disallow="pedestrian tram rail_urban rail rail_electric ship" oneway="0" sidewalkWidth="2.00"/>
    <type id="highway.primary_link" priority="7" numLanes="1" speed="22.22" disallow="pedestrian tram rail_urban rail rail_electric ship" oneway="0" sidewalkWidth="2.00"/>
    <type id="highway.raceway" priority="15" numLanes="2" speed="83.33" allow="vip" oneway="0"/>
    <type id="highway.residential" priority="3" numLanes="1" speed="11.18" disallow="tram rail_urban rail rail_electric ship" oneway="0"/>
    <type id="highway.secondary" priority="11" numLanes="1" speed="11.18" disallow="pedestrian tram rail_urban rail rail_electric ship" oneway="0" sidewalkWidth="2.00"/>
    <type id="highway.secondary_link" priority="6" numLanes="1" speed="22.22" disallow="pedestrian tram rail_urban rail rail_electric ship" oneway="0" sidewalkWidth="2.00"/>
    <type id="highway.service" priority="1" numLanes="1" speed="5.56" allow="pedestrian delivery bicycle" oneway="0"/>
    <type id="highway.stairs" priority="1" numLanes="1" speed="1.39" allow="pedestrian" oneway="1" width="2.00"/>
    <type id="highway.step" priority="1" numLanes="1" speed="1.39" allow="pedestrian" oneway="1" width="2.00"/>
    <type id="highway.steps" priority="1" numLanes="1" speed="1.39" allow="pedestrian" oneway="1" width="2.00"/>
    <type id="highway.tertiary" priority="10" numLanes="1" speed="11.18" disallow="pedestrian tram rail_urban rail rail_electric ship" oneway="0" sidewalkWidth="2.00"/>
    <type id="highway.tertiary_link" priority="5" numLanes="1" speed="22.22" disallow="tram rail_urban rail rail_electric ship" oneway="0"/>
    <type id="highway.track" priority="1" numLanes="1" speed="5.56" disallow="tram rail_urban rail rail_electric ship" oneway="0"/>
    <type id="highway.trunk" priority="13" numLanes="2" speed="27.78" disallow="pedestrian bicycle tram rail_urban rail rail_electric ship" oneway="0"/>
    <type id="highway.trunk_link" priority="8" numLanes="1" speed="22.22" disallow="pedestrian bicycle tram rail_urban rail rail_electric ship" oneway="0"/>
    <type id="highway.unclassified" priority="4" numLanes="1" speed="11.18" disallow="tram rail_urban rail rail_electric ship" oneway="0"/>
    <type id="highway.unsurfaced" priority="1" numLanes="1" speed="8.33" disallow="tram rail_urban rail rail_electric ship" oneway="0"/>
    <type id="railway.light_rail" priority="19" numLanes="1" speed="27.78" allow="rail_urban" oneway="1"/>
    <type id="railway.preserved" priority="16" numLanes="1" speed="27.78" allow="rail" oneway="1"/>
    <type id="railway.rail" priority="20" numLanes="1" speed="83.33" allow="rail rail_electric" oneway="1"/>
    <type id="railway.subway" priority="18" numLanes="1" speed="27.78" allow="rail_urban" oneway="1"/>
    <type id="railway.tram" priority="17" numLanes="1" speed="13.89" allow="tram" oneway="1"/>

    <edge id=":201066043_0" function="internal">
        <lane id=":201066043_0_0" index="0" disallow="pedestrian tram rail_urban rail rail_electric ship" speed="11.18" length="11.26" shape="362.29,646.11 362.52,649.45 362.60,651.73 362.55,654.02 362.37,657.36"/>
    </edge>
    <edge id=":201066043_1" function="internal">
        <lane id=":201066043_1_0" index="0" disallow="pedestrian tram rail_urban rail rail_electric ship" speed="6.59" length="9.14" shape="362.29,646.11 362.11,648.54 361.15,650.35 359.43,651.55 356.94,652.12"/>
    </edge>
    <edge id=":201108097_0" function="internal">
        <lane id=":201108097_0_0" index="0" disallow="pedestrian tram rail_urban rail rail_electric ship" speed="6.30" length="9.82" shape="345.01,707.80 342.79,706.12 340.71,705.70 338.75,706.54 336.93,708.65"/>
    </edge>
    <edge id=":201108097_1" function="internal">
        <lane id=":201108097_1_0" index="0" disallow="pedestrian tram rail_urban rail rail_electric ship" speed="11.18" length="10.36" shape="345.01,707.80 337.97,700.20"/>
    </edge>
    <edge id=":201108097_2" function="internal">
        <lane id=":201108097_2_0" index="0" disallow="pedestrian tram rail_urban rail rail_electric ship" speed="11.18" length="10.37" shape="343.00,700.25 341.01,702.60 339.74,704.28 338.58,706.04 336.93,708.65"/>
    </edge>
    <edge id=":201108097_3" function="internal">
        <lane id=":201108097_3_0" index="0" disallow="pedestrian tram rail_urban rail rail_electric ship" speed="5.18" length="5.97" shape="343.00,700.25 341.73,701.34 340.46,701.70 339.21,701.31 337.97,700.20"/>
    </edge>
    <edge id=":201108108_0" function="internal">
        <lane id=":201108108_0_0" index="0" disallow="pedestrian tram rail_urban rail rail_electric ship" speed="5.91" length="7.63" shape="361.78,661.63 361.86,663.32 362.73,664.61 364.39,665.49 366.84,665.97"/>
    </edge>
    <edge id=":201108108_1" function="internal">
        <lane id=":201108108_1_0" index="0" disallow="pedestrian tram rail_urban rail rail_electric ship" speed="11.18" length="7.01" shape="361.78,661.63 360.45,668.51"/>
    </edge>
    <edge id=":201119109_0" function="internal">
        <lane id=":201119109_0_0" index="0" disallow="pedestrian tram rail_urban rail rail_electric ship" speed="7.94" length="11.74" shape="160.93,744.73 158.38,743.58 156.61,741.65 155.62,738.97 155.42,735.51"/>
    </edge>
    <edge id=":201119109_1" function="internal">
        <lane id=":201119109_1_0" index="0" disallow="pedestrian tram rail_urban rail rail_electric ship" speed="11.18" length="13.74" shape="154.93,749.24 155.42,735.51"/>
    </edge>
    <edge id=":201119109_2" function="internal">
        <lane id=":201119109_2_0" index="0" disallow="pedestrian tram rail_urban rail rail_electric ship" speed="6.93" length="12.23" shape="154.93,749.24 155.44,745.27 156.75,742.67 158.85,741.46 161.74,741.63"/>
    </edge>
    <edge id=":201120870_0" function="internal">
        <lane id=":201120870_0_0" index="0" disallow="pedestrian tram rail_urban rail rail_electric ship" speed="5.67" length="8.27" shape="443.68,788.79 444.67,790.60 446.11,791.34 447.98,791.01 450.29,789.61"/>
    </edge>
    <edge id=":201120870_1" function="internal">
        <lane id=":201120870_1_0" index="0" disallow="pedestrian tram rail_urban rail rail_electric ship" speed="11.18" length="13.67" shape="443.68,788.79 444.69,792.70 444.95,795.47 445.13,798.27 445.90,802.24"/>
    </edge>
    <edge id=":201120873_0" function="internal">
        <lane id=":201120873_0_0" index="0" disallow="pedestrian tram rail_urban rail rail_electric ship" speed="11.18" length="0.29" shape="427.38,739.80 427.47,740.07"/>
    </edge>
    <edge id=":201120877_0" function="internal">
        <lane id=":201120877_0_0" index="0" disallow="pedestrian tram rail_urban rail rail_electric ship" speed="11.18" length="9.55" shape="422.42,724.69 425.46,733.74"/>
    </edge>
    <edge id=":201120877_1" function="internal">
        <lane id=":201120877_1_0" index="0" disallow="pedestrian tram rail_urban rail rail_electric ship" speed="6.79" length="9.38" shape="422.42,724.69 423.00,727.31 422.72,729.50 421.57,731.24 419.55,732.54"/>
    </edge>
    <edge id=":201120877_2" function="internal">
        <lane id=":201120877_2_0" index="0" disallow="pedestrian tram rail_urban rail rail_electric ship" speed="6.48" length="9.68" shape="418.26,729.61 420.65,729.02 422.64,729.51 424.25,731.08 425.46,733.74"/>
    </edge>
    <edge id=":201120881_0" function="internal">
        <lane id=":201120881_0_0" index="0" disallow="pedestrian tram rail_urban rail rail_electric ship" speed="5.98" length="7.50" shape="423.02,709.65 420.78,710.67 419.35,711.89 418.74,713.30 418.94,714.91"/>
    </edge>
    <edge id=":201120881_1" function="internal">
        <lane id=":201120881_1_0" index="0" disallow="pedestrian tram rail_urban rail rail_electric ship" speed="11.18" length="7.05" shape="416.44,708.32 418.94,714.91"/>
    </edge>
    <edge id=":201120882_0" function="internal">
        <lane id=":201120882_0_0" index="0" disallow="pedestrian tram rail_urban rail rail_electric ship" speed="11.18" length="0.24" shape="401.83,672.19 401.91,672.41"/>
    </edge>
    <edge id=":201120886_0" function="internal">
        <lane id=":201120886_0_0" index="0" disallow="pedestrian tram rail_urban rail rail_electric ship" speed="11.18" length="6.54" shape="399.31,664.66 401.39,670.86"/>
    </edge>
    <edge id=":201120886_1" function="internal">
        <lane id=":201120886_1_0" index="0" disallow="pedestrian tram rail_urban rail rail_electric ship" speed="6.98" length="7.21" shape="394.74,668.68 397.45,669.04 399.47,669.53 400.78,670.13 401.39,670.86"/>
    </edge>
    <edge id=":201120890_0" function="internal">
        <lane id=":201120890_0_0" index="0" disallow="pedestrian tram rail_urban rail rail_electric ship" speed="5.54" length="8.34" shape="386.79,629.57 387.60,631.28 388.97,631.88 390.90,631.37 393.37,629.75"/>
    </edge>
    <edge id=":201120890_1" function="internal">
        <lane id=":201120890_1_0" index="0" disallow="pedestrian tram rail_urban rail rail_electric ship" speed="11.18" length="7.03" shape="386.79,629.57 387.41,631.54 388.08,632.81 388.80,634.06 389.60,635.98"/>
    </edge>
    <edge id=":201125350_0" function="internal">
        <lane id=":201125350_0_0" index="0" disallow="pedestrian tram rail_urban rail rail_electric ship" speed="3.65" length="4.67" shape="620.59,386.88 622.03,386.74 622.84,387.11 623.04,387.99 622.61,389.36"/>
    </edge>
    <edge id=":201128602_0" function="internal">
        <lane id=":201128602_0_0" index="0" disallow="pedestrian tram rail_urban rail rail_electric ship" speed="11.18" length="0.31" shape="218.16,760.01 217.86,759.94"/>
    </edge>
    <edge id=":201128602_1" function="internal">
        <lane id=":201128602_1_0" index="0" disallow="pedestrian tram rail_urban rail rail_electric ship" speed="11.18" length="0.23" shape="218.62,756.83 218.85,756.89"/>
    </edge>
    <edge id=":201128623_0" function="internal">
        <lane id=":201128623_0_0" index="0" disallow="pedestrian tram rail_urban rail rail_electric ship" speed="11.18" length="6.97" shape="234.67,654.25 232.67,653.73 231.29,653.40 229.90,653.12 227.86,652.78"/>
    </edge>
    <edge id=":201128623_1" function="internal">
        <lane id=":201128623_1_0" index="0" disallow="pedestrian tram rail_urban rail rail_electric ship" speed="6.06" length="7.24" shape="230.39,658.87 230.40,656.39 229.99,654.55 229.14,653.34 227.86,652.78"/>
    </edge>
    <edge id=":201128632_0" function="internal">
        <lane id=":201128632_0_0" index="0" disallow="pedestrian tram rail_urban rail rail_electric ship" speed="11.18" length="7.08" shape="227.02,762.02 220.12,760.44"/>
    </edge>
    <edge id=":201128632_1" function="internal">
        <lane id=":201128632_1_0" index="0" disallow="pedestrian tram rail_urban rail rail_electric ship" speed="7.40" length="10.26" shape="227.02,762.02 226.06,761.21 225.44,759.32 225.17,756.35 225.24,752.32"/>
    </edge>
    <edge id=":201128632_2" function="internal">
        <lane id=":201128632_2_0" index="0" disallow="pedestrian tram rail_urban rail rail_electric ship" speed="5.81" length="7.84" shape="220.81,757.32 222.63,757.34 223.97,756.52 224.84,754.84 225.24,752.32"/>
    </edge>
    <edge id=":201128632_3" function="internal">
        <lane id=":201128632_3_0" index="0" disallow="pedestrian tram rail_urban rail rail_electric ship" speed="11.18" length="7.16" shape="220.81,757.32 227.78,758.92"/>
    </edge>
    <edge id=":201147009_0" function="internal">
        <lane id=":201147009_0_0" index="0" disallow="pedestrian tram rail_urban rail rail_electric ship" speed="9.10" length="10.71" shape="358.83,800.89 357.23,796.94 355.85,794.08 354.70,792.30 353.78,791.60"/>
    </edge>
    <edge id=":201147009_1" function="internal">
        <lane id=":201147009_1_0" index="0" disallow="pedestrian tram rail_urban rail rail_electric ship" speed="7.34" length="17.55" shape="358.83,800.89 357.39,795.35 358.12,791.90 361.01,790.52 366.07,791.22"/>
    </edge>
    <edge id=":201147009_2" function="internal">
        <lane id=":201147009_2_0" index="0" disallow="pedestrian tram rail_urban rail rail_electric ship" speed="5.54" length="9.31" shape="365.34,794.34 362.77,794.01 361.32,794.80 361.01,796.71 361.82,799.74"/>
    </edge>
    <edge id=":201147009_3" function="internal">
        <lane id=":201147009_3_0" index="0" disallow="pedestrian tram rail_urban rail rail_electric ship" speed="11.18" length="11.88" shape="365.34,794.34 353.78,791.60"/>
    </edge>
    <edge id=":201147009_4" function="internal">
        <lane id=":201147009_4_0" index="0" disallow="pedestrian tram rail_urban rail rail_electric ship" speed="11.18" length="11.99" shape="354.39,788.46 366.07,791.22"/>
    </edge>
    <edge id=":201147009_5" function="internal">
        <lane id=":201147009_5_0" index="0" disallow="pedestrian tram rail_urban rail rail_electric ship" speed="10.28" length="3.74" shape="354.39,788.46 356.12,789.41 357.24,790.77"/>
    </edge>
    <edge id=":201147009_6" function="internal">
        <lane id=":201147009_6_0" index="0" disallow="pedestrian tram rail_urban rail rail_electric ship" speed="10.28" length="10.11" shape="357.24,790.77 357.93,791.60 359.83,795.05 361.82,799.74"/>
    </edge>
    <edge id=":201149340_0" function="internal">
        <lane id=":201149340_0_0" index="0" disallow="pedestrian tram rail_urban rail rail_electric ship" speed="11.18" length="6.60" shape="191.93,753.59 185.58,751.82"/>
    </edge>
    <edge id=":201149340_1" function="internal">
        <lane id=":201149340_1_0" index="0" disallow="pedestrian tram rail_urban rail rail_electric ship" speed="6.19" length="6.96" shape="190.63,744.32 190.63,746.80 190.98,748.65 191.67,749.88 192.69,750.48"/>
    </edge>
    <edge id=":201149340_2" function="internal">
        <lane id=":201149340_2_0" index="0" disallow="pedestrian tram rail_urban rail rail_electric ship" speed="6.48" length="10.49" shape="190.63,744.32 190.12,748.11 189.10,750.62 187.59,751.86 185.58,751.82"/>
    </edge>
    <edge id=":201149340_3" function="internal">
        <lane id=":201149340_3_0" index="0" disallow="pedestrian tram rail_urban rail rail_electric ship" speed="11.18" length="6.45" shape="186.48,748.75 192.69,750.48"/>
    </edge>
    <edge id=":201149343_0" function="internal">
        <lane id=":201149343_0_0" index="0" disallow="pedestrian tram rail_urban rail rail_electric ship" speed="11.18" length="5.89" shape="291.12,777.89 285.42,776.38"/>
    </edge>
    <edge id=":201149343_1" function="internal">
        <lane id=":201149343_1_0" index="0" disallow="pedestrian tram rail_urban rail rail_electric ship" speed="6.16" length="6.74" shape="290.23,768.78 290.16,771.17 290.44,772.97 291.07,774.19 292.04,774.82"/>
    </edge>
    <edge id=":201149343_2" function="internal">
        <lane id=":201149343_2_0" index="0" disallow="pedestrian tram rail_urban rail rail_electric ship" speed="6.53" length="10.16" shape="290.23,768.78 289.64,772.48 288.64,774.98 287.23,776.28 285.42,776.38"/>
    </edge>
    <edge id=":201149343_3" function="internal">
        <lane id=":201149343_3_0" index="0" disallow="pedestrian tram rail_urban rail rail_electric ship" speed="11.18" length="6.06" shape="286.18,773.27 292.04,774.82"/>
    </edge>
    <edge id=":201149351_0" function="internal">
        <lane id=":201149351_0_0" index="0" disallow="pedestrian tram rail_urban rail rail_electric ship" speed="6.97" length="9.62" shape="309.69,783.02 306.97,782.84 304.80,783.46 303.16,784.87 302.07,787.08"/>
    </edge>
    <edge id=":201149351_1" function="internal">
        <lane id=":201149351_1_0" index="0" disallow="pedestrian tram rail_urban rail rail_electric ship" speed="11.18" length="9.73" shape="309.69,783.02 306.86,782.46 304.94,782.01 303.04,781.48 300.27,780.64"/>
    </edge>
    <edge id=":201149351_2" function="internal">
        <lane id=":201149351_2_0" index="0" disallow="pedestrian tram rail_urban rail rail_electric ship" speed="6.32" length="9.27" shape="306.42,773.11 305.98,775.66 306.49,777.64 307.97,779.05 310.41,779.90"/>
    </edge>
    <edge id=":201149351_3" function="internal">
        <lane id=":201149351_3_0" index="0" disallow="pedestrian tram rail_urban rail rail_electric ship" speed="11.18" length="14.63" shape="306.42,773.11 302.07,787.08"/>
    </edge>
    <edge id=":201149351_4" function="internal">
        <lane id=":201149351_4_0" index="0" disallow="pedestrian tram rail_urban rail rail_electric ship" speed="7.03" length="10.52" shape="306.42,773.11 304.99,776.78 303.48,779.26 301.91,780.55 300.27,780.64"/>
    </edge>
    <edge id=":201149351_5" function="internal">
        <lane id=":201149351_5_0" index="0" disallow="pedestrian tram rail_urban rail rail_electric ship" speed="11.18" length="9.52" shape="301.20,777.58 303.90,778.39 305.76,778.91 307.65,779.35 310.41,779.90"/>
    </edge>
    <edge id=":201149351_6" function="internal">
        <lane id=":201149351_6_0" index="0" disallow="pedestrian tram rail_urban rail rail_electric ship" speed="6.91" length="10.42" shape="301.20,777.58 302.57,778.57 303.18,780.48 303.01,783.32 302.07,787.08"/>
    </edge>
    <edge id=":201149369_0" function="internal">
        <lane id=":201149369_0_0" index="0" disallow="pedestrian tram rail_urban rail rail_electric ship" speed="8.36" length="10.13" shape="426.35,800.17 424.69,798.91 422.55,798.28 419.92,798.28 416.80,798.91"/>
    </edge>
    <edge id=":201149369_1" function="internal">
        <lane id=":201149369_1_0" index="0" disallow="pedestrian tram rail_urban rail rail_electric ship" speed="11.18" length="14.41" shape="426.35,800.17 423.75,796.81 422.35,794.21 420.99,791.59 418.48,788.15"/>
    </edge>
    <edge id=":201149369_2" function="internal">
        <lane id=":201149369_2_0" index="0" disallow="pedestrian tram rail_urban rail rail_electric ship" speed="6.15" length="10.56" shape="415.93,795.83 418.83,794.58 420.22,792.88 420.11,790.74 418.48,788.15"/>
    </edge>
    <edge id=":201149369_3" function="internal">
        <lane id=":201149369_3_0" index="0" disallow="pedestrian tram rail_urban rail rail_electric ship" speed="9.64" length="13.69" shape="415.93,795.83 419.97,795.06 423.45,795.16 426.37,796.15 428.73,798.02"/>
    </edge>
    <edge id=":201149374_0" function="internal">
        <lane id=":201149374_0_0" index="0" disallow="pedestrian tram rail_urban rail rail_electric ship" speed="11.18" length="20.77" shape="456.56,833.54 442.62,818.14"/>
    </edge>
    <edge id=":201149374_1" function="internal">
        <lane id=":201149374_1_0" index="0" disallow="pedestrian tram rail_urban rail rail_electric ship" speed="11.18" length="21.17" shape="449.47,812.66 451.81,818.35 453.30,822.63 455.25,826.60 458.94,831.40"/>
    </edge>
    <edge id=":201149374_2" function="internal">
        <lane id=":201149374_2_0" index="0" disallow="pedestrian tram rail_urban rail rail_electric ship" speed="11.18" length="20.79" shape="444.99,816.00 458.94,831.40"/>
    </edge>
    <edge id=":201166674_0" function="internal">
        <lane id=":201166674_0_0" index="0" disallow="pedestrian tram rail_urban rail rail_electric ship" speed="3.65" length="4.67" shape="549.54,931.87 549.74,933.30 549.40,934.13 548.54,934.36 547.14,933.99"/>
    </edge>
    <edge id=":201169073_0" function="internal">
        <lane id=":201169073_0_0" index="0" disallow="pedestrian tram rail_urban rail rail_electric ship" speed="6.31" length="6.87" shape="165.19,645.81 162.78,645.29 161.03,644.60 159.94,643.73 159.51,642.69"/>
    </edge>
    <edge id=":201169073_1" function="internal">
        <lane id=":201169073_1_0" index="0" disallow="pedestrian tram rail_urban rail rail_electric ship" speed="11.18" length="7.78" shape="159.48,650.46 159.61,648.16 159.69,646.57 159.67,644.99 159.51,642.69"/>
    </edge>
    <edge id=":201169371_0" function="internal">
        <lane id=":201169371_0_0" index="0" disallow="tram rail_urban rail rail_electric ship" speed="6.03" length="7.89" shape="470.73,572.98 470.09,571.64 470.33,570.11 471.48,568.39 473.52,566.49"/>
    </edge>
    <edge id=":201169371_1" function="internal">
        <lane id=":201169371_1_0" index="0" disallow="tram rail_urban rail rail_electric ship" speed="11.18" length="9.40" shape="466.16,572.34 473.52,566.49"/>
    </edge>
    <edge id=":201169371_2" function="internal">
        <lane id=":201169371_2_0" index="0" disallow="tram rail_urban rail rail_electric ship" speed="6.22" length="7.83" shape="466.16,572.34 468.43,570.80 470.35,570.04 471.92,570.06 473.14,570.86"/>
    </edge>
    <edge id=":201169397_0" function="internal">
        <lane id=":201169397_0_0" index="0" disallow="tram rail_urban rail rail_electric ship" speed="11.18" length="9.44" shape="552.35,630.97 544.89,636.75"/>
    </edge>
    <edge id=":201169397_1" function="internal">
        <lane id=":201169397_1_0" index="0" disallow="tram rail_urban rail rail_electric ship" speed="6.04" length="7.86" shape="552.35,630.97 550.05,632.54 548.13,633.28 546.58,633.19 545.42,632.29"/>
    </edge>
    <edge id=":201169397_2" function="internal">
        <lane id=":201169397_2_0" index="0" disallow="tram rail_urban rail rail_electric ship" speed="6.13" length="7.83" shape="548.00,630.39 548.52,631.75 548.17,633.27 546.96,634.93 544.89,636.75"/>
    </edge>
    <edge id=":201175123_0" function="internal">
        <lane id=":201175123_0_0" index="0" disallow="pedestrian tram rail_urban rail rail_electric ship" speed="6.59" length="6.34" shape="199.06,650.46 198.22,650.96 197.50,652.05 196.89,653.71 196.39,655.94"/>
    </edge>
    <edge id=":201175123_1" function="internal">
        <lane id=":201175123_1_0" index="0" disallow="pedestrian tram rail_urban rail rail_electric ship" speed="11.18" length="4.97" shape="199.06,650.46 197.63,650.75 196.62,650.79 195.61,650.65 194.15,650.40"/>
    </edge>
    <edge id=":201189467_0" function="internal">
        <lane id=":201189467_0_0" index="0" disallow="pedestrian tram rail_urban rail rail_electric ship" speed="6.03" length="7.58" shape="271.99,660.83 270.39,660.94 269.11,661.82 268.16,663.48 267.53,665.90"/>
    </edge>
    <edge id=":201189467_1" function="internal">
        <lane id=":201189467_1_0" index="0" disallow="pedestrian tram rail_urban rail rail_electric ship" speed="11.18" length="10.49" shape="271.99,660.83 261.62,659.31"/>
    </edge>
    <edge id=":201189467_2" function="internal">
        <lane id=":201189467_2_0" index="0" disallow="pedestrian tram rail_urban rail rail_electric ship" speed="5.95" length="7.55" shape="264.37,665.38 264.54,662.91 264.14,661.08 263.17,659.88 261.62,659.31"/>
    </edge>
    <edge id=":201189472_0" function="internal">
        <lane id=":201189472_0_0" index="0" disallow="tram rail_urban rail rail_electric ship" speed="3.65" length="4.67" shape="261.32,739.22 260.43,740.36 259.60,740.70 258.83,740.23 258.12,738.98"/>
    </edge>
    <edge id=":201191022_0" function="internal">
        <lane id=":201191022_0_0" index="0" disallow="pedestrian tram rail_urban rail rail_electric ship" speed="11.18" length="9.61" shape="386.88,750.74 380.43,743.62"/>
    </edge>
    <edge id=":201191022_1" function="internal">
        <lane id=":201191022_1_0" index="0" disallow="pedestrian tram rail_urban rail rail_electric ship" speed="5.85" length="8.66" shape="386.88,750.74 385.18,748.30 384.56,746.29 385.02,744.71 386.58,743.57"/>
    </edge>
    <edge id=":201191022_2" function="internal">
        <lane id=":201191022_2_0" index="0" disallow="pedestrian tram rail_urban rail rail_electric ship" speed="7.33" length="8.46" shape="387.87,746.50 386.20,746.85 384.41,746.48 382.48,745.41 380.43,743.62"/>
    </edge>
    <edge id=":201221103_0" function="internal">
        <lane id=":201221103_0_0" index="0" disallow="pedestrian tram rail_urban rail rail_electric ship" speed="11.18" length="9.39" shape="159.07,637.49 158.87,634.72 158.84,632.81 158.93,630.90 159.10,628.12"/>
    </edge>
    <edge id=":201221103_1" function="internal">
        <lane id=":201221103_1_0" index="0" disallow="pedestrian tram rail_urban rail rail_electric ship" speed="6.20" length="7.79" shape="159.07,637.49 159.33,636.03 160.38,634.87 162.23,634.01 164.87,633.45"/>
    </edge>
    <edge id=":201224431_0" function="internal">
        <lane id=":201224431_0_0" index="0" disallow="pedestrian tram rail_urban rail rail_electric ship" speed="11.18" length="0.31" shape="412.82,564.58 412.59,564.78"/>
    </edge>
    <edge id=":201224431_1" function="internal">
        <lane id=":201224431_1_0" index="0" disallow="pedestrian tram rail_urban rail rail_electric ship" speed="11.18" length="0.29" shape="410.49,562.37 410.71,562.18"/>
    </edge>
    <edge id=":201246563_0" function="internal">
        <lane id=":201246563_0_0" index="0" disallow="pedestrian tram rail_urban rail rail_electric ship" speed="5.96" length="7.53" shape="303.94,666.19 302.31,666.25 301.01,667.10 300.06,668.71 299.44,671.10"/>
    </edge>
    <edge id=":201246563_1" function="internal">
        <lane id=":201246563_1_0" index="0" disallow="pedestrian tram rail_urban rail rail_electric ship" speed="11.18" length="7.24" shape="303.94,666.19 296.81,664.95"/>
    </edge>
    <edge id=":3633104634_0" function="internal">
        <lane id=":3633104634_0_0" index="0" disallow="pedestrian tram rail_urban rail rail_electric ship" speed="11.18" length="0.29" shape="160.47,602.39 160.49,602.10"/>
    </edge>
    <edge id=":4844962822_0" function="internal">
        <lane id=":4844962822_0_0" index="0" disallow="pedestrian tram rail_urban rail rail_electric ship" speed="16.70" length="9.01" shape="387.41,801.59 384.79,801.82 383.06,802.39 381.38,803.23 378.91,804.27"/>
    </edge>
    <edge id=":4844962822_1" function="internal">
        <lane id=":4844962822_1_0" index="0" disallow="pedestrian tram rail_urban rail rail_electric ship" speed="11.18" length="8.72" shape="387.41,801.59 384.94,801.27 383.38,800.42 381.85,799.34 379.47,798.33"/>
    </edge>
    <edge id=":4844962822_2" function="internal">
        <lane id=":4844962822_2_0" index="0" disallow="pedestrian tram rail_urban rail rail_electric ship" speed="11.18" length="8.21" shape="380.34,795.25 382.57,796.21 384.00,797.25 385.46,798.07 387.78,798.39"/>
    </edge>
    <edge id=":4844962823_0" function="internal">
        <lane id=":4844962823_0_0" index="0" disallow="tram rail_urban rail rail_electric ship" speed="11.18" length="9.34" shape="365.25,817.66 361.91,808.94"/>
    </edge>
    <edge id=":4844962823_1" function="internal">
        <lane id=":4844962823_1_0" index="0" disallow="tram rail_urban rail rail_electric ship" speed="6.91" length="8.10" shape="370.83,809.49 369.13,811.09 368.14,812.80 367.84,814.61 368.24,816.52"/>
    </edge>
    <edge id=":4844962823_2" function="internal">
        <lane id=":4844962823_2_0" index="0" disallow="tram rail_urban rail rail_electric ship" speed="11.18" length="9.34" shape="364.90,807.80 368.24,816.52"/>
    </edge>
    <edge id=":4844962829_0" function="internal">